# created with PyMOL 2.3.2
@<TRIPOS>MOLECULE
H7M
38 40 1                 
SMALL
USER_CHARGES
@<TRIPOS>ATOM
1	 CL2	15.817	6.201	-21.994	Cl	1	H7M401	0.000	
2	 C01	24.687	7.862	-28.046	C.3	1	H7M401	0.000	
3	 N02	24.412	6.819	-29.014	N.2	1	H7M401	0.000	
4	 C03	24.970	6.692	-30.207	C.2	1	H7M401	0.000	
5	 N04	24.462	5.624	-30.794	N.2	1	H7M401	0.000	
6	 N05	23.560	5.077	-29.937	N.2	1	H7M401	0.000	
7	 C06	23.553	5.828	-28.857	C.2	1	H7M401	0.000	
8	 S07	22.504	5.550	-27.374	S.3	1	H7M401	0.000	
9	 C08	20.888	6.314	-27.783	C.2	1	H7M401	0.000	
10	 C09	20.596	6.715	-29.060	C.2	1	H7M401	0.000	
11	 C10	19.333	7.272	-29.315	C.2	1	H7M401	0.000	
12	 C11	18.409	7.423	-28.302	C.2	1	H7M401	0.000	
13	 C12	18.699	7.018	-27.024	C.2	1	H7M401	0.000	
14	 C13	19.960	6.463	-26.765	C.2	1	H7M401	0.000	
15	 N14	20.338	5.991	-25.430	N.pl3	1	H7M401	0.000	
16	 S15	20.785	7.110	-24.242	S.O2	1	H7M401	0.000	
17	 O16	21.638	6.382	-23.293	O.2	1	H7M401	0.000	
18	 O17	21.609	8.174	-24.832	O.2	1	H7M401	0.000	
19	 C18	19.232	7.787	-23.562	C.2	1	H7M401	0.000	
20	 C19	18.982	9.146	-23.544	C.2	1	H7M401	0.000	
21	 C20	17.778	9.591	-23.050	C.2	1	H7M401	0.000	
22	 C21	16.822	8.663	-22.583	C.2	1	H7M401	0.000	
23	 C22	17.081	7.299	-22.615	C.2	1	H7M401	0.000	
24	 C24	18.278	6.838	-23.109	C.2	1	H7M401	0.000	
25	 O25	18.639	5.419	-23.203	O.3	1	H7M401	0.000	
26	 H01	25.521	8.471	-28.396	 H	1	H7M401	0.000	
27	 H02	23.804	8.490	-27.927	 H	1	H7M401	0.000	
28	 H03	24.944	7.411	-27.088	 H	1	H7M401	0.000	
29	 H04	25.722	7.356	-30.633	 H	1	H7M401	0.000	
30	 H05	21.328	6.604	-29.860	 H	1	H7M401	0.000	
31	 H06	19.079	7.589	-30.326	 H	1	H7M401	0.000	
32	 H07	17.438	7.869	-28.519	 H	1	H7M401	0.000	
33	 H08	17.964	7.125	-26.226	 H	1	H7M401	0.000	
34	 H09	20.332	5.003	-25.220	 H	1	H7M401	0.000	
35	 H10	19.725	9.852	-23.914	 H	1	H7M401	0.000	
36	 H11	17.562	10.659	-23.019	 H	1	H7M401	0.000	
37	 H12	15.869	9.021	-22.193	 H	1	H7M401	0.000	
38	 H13	18.706	5.166	-24.127	 H	1	H7M401	0.000	
@<TRIPOS>BOND
1 2 3 1
2 2 26 1
3 2 27 1
4 2 28 1
5 3 4 ar
6 4 5 ar
7 4 29 1
8 5 6 ar
9 3 7 ar
10 6 7 ar
11 7 8 1
12 8 9 1
13 9 10 ar
14 10 30 1
15 10 11 ar
16 11 12 ar
17 11 31 1
18 12 13 ar
19 12 32 1
20 13 33 1
21 9 14 ar
22 13 14 ar
23 14 15 1
24 15 16 1
25 15 34 1
26 16 17 2
27 16 18 2
28 16 19 1
29 19 20 ar
30 20 35 1
31 20 21 ar
32 21 22 ar
33 21 36 1
34 22 23 ar
35 22 37 1
36 1 23 1
37 23 24 ar
38 19 24 ar
39 24 25 1
40 25 38 1
@<TRIPOS>SUBSTRUCTURE
1	H7M401	1	GROUP	1 A	H7M
