#

@<TRIPOS>MOLECULE
lactamase_ligand
 38 40 0 0 0
SMALL
USER_CHARGES

@<TRIPOS>ATOM
      1 CL2        15.8170    6.2010  -21.9940 Cl        1 LIG         0.0000
      2 C01        24.6870    7.8620  -28.0460 C.3       1 LIG         0.0000
      3 N02        24.4120    6.8190  -29.0140 N.ar      1 LIG         0.0000
      4 C03        24.9700    6.6920  -30.2070 C.ar      1 LIG         0.0000
      5 N04        24.4620    5.6240  -30.7940 N.ar      1 LIG         0.0000
      6 N05        23.5600    5.0770  -29.9370 N.ar      1 LIG         0.0000
      7 C06        23.5530    5.8280  -28.8570 C.ar      1 LIG         0.0000
      8 S07        22.5040    5.5500  -27.3740 S.3       1 LIG         0.0000
      9 C08        20.8880    6.3140  -27.7830 C.ar      1 LIG         0.0000
     10 C09        20.5960    6.7150  -29.0600 C.ar      1 LIG         0.0000
     11 C10        19.3330    7.2720  -29.3150 C.ar      1 LIG         0.0000
     12 C11        18.4090    7.4230  -28.3020 C.ar      1 LIG         0.0000
     13 C12        18.6990    7.0180  -27.0240 C.ar      1 LIG         0.0000
     14 C13        19.9600    6.4630  -26.7650 C.ar      1 LIG         0.0000
     15 N14        20.3380    5.9910  -25.4300 N.pl3     1 LIG         0.0000
     16 S15        20.7850    7.1100  -24.2420 S.O2      1 LIG         0.0000
     17 O16        21.6380    6.3820  -23.2930 O.2       1 LIG         0.0000
     18 O17        21.6090    8.1740  -24.8320 O.2       1 LIG         0.0000
     19 C18        19.2320    7.7870  -23.5620 C.ar      1 LIG         0.0000
     20 C19        18.9820    9.1460  -23.5440 C.ar      1 LIG         0.0000
     21 C20        17.7780    9.5910  -23.0500 C.ar      1 LIG         0.0000
     22 C21        16.8220    8.6630  -22.5830 C.ar      1 LIG         0.0000
     23 C22        17.0810    7.2990  -22.6150 C.ar      1 LIG         0.0000
     24 C24        18.2780    6.8380  -23.1090 C.ar      1 LIG         0.0000
     25 O25        18.6390    5.4190  -23.2030 O.3       1 LIG         0.0000
     26 H01        25.5210    8.4710  -28.3960 H         1 LIG         0.0000
     27 H02        23.8040    8.4900  -27.9270 H         1 LIG         0.0000
     28 H03        24.9440    7.4110  -27.0880 H         1 LIG         0.0000
     29 H04        25.7220    7.3560  -30.6330 H         1 LIG         0.0000
     30 H05        21.3280    6.6040  -29.8600 H         1 LIG         0.0000
     31 H06        19.0790    7.5890  -30.3260 H         1 LIG         0.0000
     32 H07        17.4380    7.8690  -28.5190 H         1 LIG         0.0000
     33 H08        17.9640    7.1250  -26.2260 H         1 LIG         0.0000
     34 H09        20.3320    5.0030  -25.2200 H         1 LIG         0.0000
     35 H10        19.7250    9.8520  -23.9140 H         1 LIG         0.0000
     36 H11        17.5620   10.6590  -23.0190 H         1 LIG         0.0000
     37 H12        15.8690    9.0210  -22.1930 H         1 LIG         0.0000
     38 H13        18.7060    5.1660  -24.1270 H         1 LIG         0.0000
@<TRIPOS>BOND
     1    2    3 1  
     2    2   26 1  
     3    2   27 1  
     4    2   28 1  
     5    3    4 1  
     6    4    5 2  
     7    4   29 1  
     8    5    6 1  
     9    3    7 1  
    10    6    7 2  
    11    7    8 1  
    12    8    9 1  
    13    9   10 2  
    14   10   30 1  
    15   10   11 1  
    16   11   12 2  
    17   11   31 1  
    18   12   13 1  
    19   12   32 1  
    20   13   33 1  
    21    9   14 1  
    22   13   14 2  
    23   14   15 1  
    24   15   16 1  
    25   15   34 1  
    26   16   17 1  
    27   16   18 1  
    28   16   19 1  
    29   19   20 2  
    30   20   35 1  
    31   20   21 1  
    32   21   22 2  
    33   21   36 1  
    34   22   23 1  
    35   22   37 1  
    36    1   23 1  
    37   23   24 2  
    38   19   24 1  
    39   24   25 1  
    40   25   38 1  
